Mass Spectrum: Boric acid
Formula: B H3 O3
CAS: 10043-35-3
Molecular weight: 62
Origin: Chemical Concepts
m/z	RELATIVE INTENSITY
22	6
26	26
27	186
28	393
29	16
39	4
41	8
42	46
43	549
44	5525
45	9999
46	38
47	64
51	2
53	1
55	7
56	4
57	11
59	6
60	14
61	2256
62	8263
63	165
64	54
