Mass Spectrum: Thiirane, methyl-
Formula: C3 H6 S
CAS: 1072-43-1
Molecular weight: 74
Origin: Chemical Concepts
m/z	RELATIVE INTENSITY
25	190
26	1096
27	2000
29	288
30	8
33	203
34	182
35	174
36	118
37	587
38	1045
39	5199
40	935
41	9999
42	1211
43	44
45	5331
46	5618
47	1374
48	409
49	47
50	11
56	73
57	439
58	1012
59	3457
60	234
61	146
62	10
63	5
65	7
68	90
69	298
70	47
71	356
73	1117
74	8210
75	399
76	384
77	11
