Mass Spectrum: Borane, ethyldimethyl-
Formula: C4 H11 B
CAS: 1113-22-0
Molecular weight: 70
Origin: Chemical Concepts
m/z	RELATIVE INTENSITY
2	44
10	64
11	234
12	94
13	304
14	74
15	374
24	24
25	154
26	1425
27	4165
28	564
29	214
35	24
36	234
37	784
38	434
39	1285
40	2925
41	9999
42	254
43	74
48	74
49	224
50	344
51	304
52	164
53	454
54	1024
55	3876
56	224
57	24
60	24
61	34
62	24
63	14
69	84
70	314
