Mass Spectrum: Methanamine, N,N-dimethyl-, N-oxide
Formula: C3 H9 N O
CAS: 1184-78-7
Molecular weight: 75
Origin: Chemical Concepts
m/z	RELATIVE INTENSITY
25	3
26	101
27	525
28	1145
29	705
30	1966
31	253
33	132
36	9
38	37
39	49
40	273
41	353
42	2702
43	1432
44	417
45	2145
46	222
47	9
50	5
51	22
52	20
53	7
54	30
55	25
56	120
57	164
58	5501
59	5322
60	4248
61	125
62	7
63	4
64	4
66	3
69	3
72	41
73	16
74	38
75	9999
76	407
77	26
