Mass Spectrum: Bicyclo[2.1.0]pentane
Formula: C5 H8
CAS: 185-94-4
Molecular weight: 68
Origin: Chemical Concepts
m/z	RELATIVE INTENSITY
25	35
26	278
27	1463
28	77
29	127
31	93
32	27
36	20
37	328
38	674
39	4389
40	1793
41	2847
42	942
43	60
49	63
50	274
51	384
52	201
53	3040
54	128
61	113
62	174
63	222
64	37
65	1106
66	631
67	9999
68	2679
69	134
