Mass Spectrum: Cyclopropane, ethylidene-
Formula: C5 H8
CAS: 18631-83-9
Molecular weight: 68
Origin: Chemical Concepts
m/z	RELATIVE INTENSITY
25	6
26	556
27	2937
28	105
29	289
30	6
33	29
35	4
36	68
37	588
38	1149
39	7489
40	4516
41	3722
42	1473
43	45
44	5
45	8
48	30
49	232
50	1002
51	1162
52	500
53	6001
54	249
55	5
60	72
61	289
62	391
63	462
64	76
65	1423
66	776
67	9999
68	6463
69	318
70	9
