Mass Spectrum: Cyclopropene
Formula: C3 H4
CAS: 2781-85-3
Molecular weight: 40
Origin: Chemical Concepts
m/z	RELATIVE INTENSITY
24	212
25	299
26	678
27	547
29	518
30	75
36	498
37	2768
38	4669
39	9999
40	6863
41	1036
42	651
43	54
