Mass Spectrum: 1-Oxa-3,4-diazacyclopentadiene
Formula: C2 H2 N2 O
CAS: 288-99-3
Molecular weight: 70
Origin: Chemical Concepts
m/z	RELATIVE INTENSITY
26	22
27	179
28	380
29	1341
30	36
31	45
39	25
40	36
41	860
42	7157
43	238
45	69
46	52
55	123
69	125
70	9999
71	234
