Mass Spectrum: Isoxazolidine
Formula: C3 H7 N O
CAS: 504-72-3
Molecular weight: 73
Origin: Chemical Concepts
m/z	RELATIVE INTENSITY
25	78
26	518
27	1842
28	4930
29	1903
30	2456
31	612
36	48
37	79
38	210
39	1127
40	646
41	3035
42	4754
43	824
44	312
45	9999
46	2611
47	54
51	43
52	58
54	398
55	218
56	1144
57	70
58	137
70	56
71	197
72	5220
73	7860
74	319
75	31
