Mass Spectrum: Aziridine, 1-ethenyl-
Formula: C4 H7 N
CAS: 5628-99-9
Molecular weight: 69
Origin: Chemical Concepts
m/z	RELATIVE INTENSITY
25	69
26	775
27	2353
28	2674
29	99
30	150
37	86
38	211
39	1187
40	1274
41	9999
42	6380
43	638
44	46
51	82
52	167
53	37
54	541
55	34
58	109
67	113
68	1827
69	5277
70	252
