Mass Spectrum: CH3ON(CH3)2
Formula: C3 H9 N O
CAS: 5669-39-6
Molecular weight: 75
Origin: Chemical Concepts
m/z	RELATIVE INTENSITY
26	77
27	555
28	845
29	1137
30	405
31	1867
33	175
39	52
40	179
41	345
42	3711
43	1609
44	825
45	1434
46	23
56	23
57	32
58	50
59	1109
60	9999
61	257
73	70
74	915
75	3697
76	134
