Mass Spectrum: Methanamine, N-hydroxy-N-methyl-
Formula: C2 H7 N O
CAS: 5725-96-2
Molecular weight: 61
Origin: Chemical Concepts
m/z	RELATIVE INTENSITY
25	3
26	31
27	348
28	1726
29	262
30	476
31	264
33	37
38	118
39	202
40	410
41	447
42	9999
43	3132
44	460
45	281
46	61
56	2
58	13
60	9164
61	8002
62	229
63	18
