Mass Spectrum: Methylenecyclopropane
Formula: C4 H6
CAS: 6142-73-0
Molecular weight: 54
Origin: Chemical Concepts
m/z	RELATIVE INTENSITY
25	204
26	2093
27	3700
28	2836
29	244
31	88
36	285
37	1146
38	1613
39	9999
40	343
41	188
48	134
49	670
50	2099
51	2378
52	731
53	3740
54	5233
55	405
