Mass Spectrum: Trimethylaluminum
Formula: C3 H9 Al
CAS: 75-24-1
Molecular weight: 72
Origin: Chemical Concepts
m/z	RELATIVE INTENSITY
27	2189
28	148
29	252
30	18
31	26
34	4
35	3
36	20
37	55
38	25
39	110
40	241
41	776
42	731
43	344
44	35
45	31
46	4
47	5
48	7
49	8
50	21
51	27
52	30
53	26
54	33
55	128
56	86
57	9999
58	215
59	8
60	3
61	11
63	8
64	4
65	7
66	10
67	31
68	9
69	17
70	30
71	12
72	398
73	92
74	9
75	8
76	6
77	18
78	16
