Mass Spectrum: Cyclobutene
Formula: C4 H6
CAS: 822-35-5
Molecular weight: 54
Origin: Chemical Concepts
m/z	RELATIVE INTENSITY
13	26
15	21
20	1
24	18
25	173
26	1665
27	4204
28	1287
34	13
36	48
37	379
38	466
39	9999
40	204
41	6
42	8
48	98
49	656
50	1997
51	1742
52	624
53	5421
54	6544
55	328
56	20
