Mass Spectrum: Allyl mercaptan
Formula: C3 H6 S
CAS: 870-23-5
Molecular weight: 74
Origin: TNO Volatile Compounds in Food - Chemical Concepts
m/z	RELATIVE INTENSITY
24	17
25	78
26	442
27	595
29	4
33	285
34	156
35	98
36	111
37	600
38	1115
39	7368
40	662
41	9742
44	80
45	3423
46	1253
47	1384
48	146
49	50
53	4
55	36
56	79
57	128
58	71
59	535
60	38
68	113
69	417
70	48
71	498
72	169
73	879
74	9999
75	391
76	83
