Mass Spectrum: 1-Propene-1-thiol
Formula: C3 H6 S
CAS: 925-89-3
Molecular weight: 74
Origin: TNO Volatile Compounds in Food - Chemical Concepts
m/z	RELATIVE INTENSITY
37	10
38	22
39	167
40	435
41	452
42	1013
43	90
45	1996
46	126
47	72
48	6
49	17
51	9
52	7
53	167
54	39
55	272
56	78
57	271
58	269
59	232
60	24
61	11
63	8
65	14
66	16
67	18
69	12
70	118
71	351
72	105
73	9999
74	874
75	386
76	20
