Mass Spectrum: Ethoxyacetylene
Formula: C4 H6 O
CAS: 927-80-0
Molecular weight: 70
Origin: TNO Volatile Compounds in Food - Chemical Concepts
m/z	RELATIVE INTENSITY
25	218
26	1336
27	9999
29	8370
30	231
31	145
36	14
37	17
38	59
39	658
40	100
41	1371
42	7981
43	504
44	284
45	55
46	16
53	29
54	11
55	1536
56	37
69	64
70	2840
